tests/src/test/resources/files/cases/4_time_coupled/4_1_generator_constraints/4_1_4_2/2NodesPST_1930.uct
##C 2007.05.01
##N
##ZBE
BBE1AA1  BE1          0 2 400.00 0.00000 0.00000 00000.0 0.00000 9000.00 -9000.0 9000.00 -9000.0
BBE2AA1  BE2          0 2 400.00 0.00000 0.00000 -1000.0 0.00000 9000.00 -9000.0 9000.00 -9000.0
##ZFR
FFR1AA1  FR1          0 2 400.00 1000.00 0.00000 00000.0 0.00000 9000.00 -9000.0 9000.00 -9000.0
FFR2AA1  FR2          0 2 400.00 0000.00 0.00000 00000.0 0.00000 9000.00 -9000.0 9000.00 -9000.0
##L
BBE1AA1  BBE2AA1  1 0 0.0000 0.0010 0.000000   9999
BBE1AA1  FFR1AA1  1 0 0.0000 10.000 0.000000   700
BBE1AA1  FFR1AA1  2 0 0.0000 10.000 0.000000   1000
BBE1AA1  FFR1AA1  3 8 0.0000 10.000 0.000000   1000
FFR2AA1  FFR1AA1  1 0 0.0000 5.0000 0.000000   400
##T
BBE1AA1  FFR2AA1  1 0 400.0 400.0 1000. 0.0000 5.0000 0.000000 0.0	     1000 PST
##R
BBE1AA1  FFR2AA1  1                    -0.68 90.00 16 0         SYMM